# =====================
# | Layers parameters |
# =====================

# Parameters for layers package
  &LAYERS_PARM01
   layers_name(1)='RHO',
    layers_krho(1)=51,
     layers_bounds(:,1)=0.00000000e+00, 2.60000000e+01, 2.60500000e+01, 2.6100000e+01, 2.61500000e+01, 2.6200000e+01, 2.625000000e+01, 2.630000e+01, 2.63500000e+01, 2.6400000e+01, 2.6450000e+01,
2.6500000e+01, 2.65500000e+01, 2.6600000e+01, 2.66500000e+01, 2.6700000e+01, 2.675000000e+01, 2.6800000e+01, 2.68500000e+01, 2.6900000e+01, 2.6950000e+01,
2.70000000e+01, 2.70500000e+01, 2.7100000e+01, 2.71500000e+01, 2.7200000e+01, 2.725000000e+01, 2.7300000e+01, 2.73500000e+01, 2.7400000e+01, 2.7450000e+01,
2.75000000e+01, 2.75500000e+01, 2.7600000e+01, 2.76500000e+01, 2.7700000e+01, 2.775000000e+01, 2.7800000e+01, 2.78500000e+01, 2.7900000e+01, 2.7950000e+01,
2.80000000e+01, 2.80500000e+01, 2.8100000e+01, 2.81500000e+01, 2.8200000e+01, 2.825000000e+01, 2.8300000e+01, 2.83500000e+01, 2.8400000e+01, 2.8450000e+01,
2.85000000e+01, 2.85500000e+01, 2.8600000e+01, 2.86500000e+01, 2.8700000e+01, 2.875000000e+01, 2.8800000e+01, 2.88500000e+01, 2.8900000e+01, 2.8950000e+01,
2.90000000e+01, 2.91000000e+01, 2.9200000e+01, 2.93000000e+01, 2.9400000e+01, 2.950000000e+01, 2.9600000e+01, 2.97000000e+01, 2.9800000e+01, 2.9900000e+01,



 layers_name(2)='TH',
 layers_krho(2)=1,
 layers_bounds(:,2)=0.00000000e+00, 
      5.00000000e-02, 1.00000000e-01, 1.50000000e-01, 2.00000000e-01, 2.50000000e-01, 3.00000000e-01, 3.50000000e-01, 4.00000000e-01, 4.50000000e-01, 5.00000000e-01, 
      5.50000000e-01, 6.00000000e-01, 6.50000000e-01, 7.00000000e-01, 7.50000000e-01, 8.00000000e-01, 8.50000000e-01, 9.00000000e-01, 9.50000000e-01, 1.00000000e+00, 
      1.05000000e+00, 1.10000000e+00, 1.15000000e+00, 1.20000000e+00, 1.25000000e+00, 1.30000000e+00, 1.35000000e+00, 1.40000000e+00, 1.45000000e+00, 1.50000000e+00,
      1.55000000e+00, 1.60000000e+00, 1.65000000e+00, 1.70000000e+00, 1.75000000e+00, 1.80000000e+00, 1.85000000e+00, 1.90000000e+00, 1.95000000e+00, 2.00000000e+00,
      2.05000000e+00, 2.10000000e+00, 2.15000000e+00, 2.20000000e+00, 2.25000000e+00, 2.30000000e+00, 2.35000000e+00, 2.40000000e+00, 2.45000000e+00, 2.50000000e+00,
      2.55000000e+00, 2.60000000e+00, 2.65000000e+00, 2.70000000e+00, 2.75000000e+00, 2.80000000e+00, 2.85000000e+00, 2.90000000e+00, 2.95000000e+00, 3.00000000e+00,
      3.05000000e+00, 3.10000000e+00, 3.15000000e+00, 3.20000000e+00, 3.25000000e+00, 3.30000000e+00, 3.35000000e+00, 3.40000000e+00, 3.45000000e+00,
1.00000000e+01, 
 layers_bolus=.FALSE.,
 &
